Saida/FonteDist_VLN.Txt

SYMMETRICAL COMPONENT VOLTAGES BY BUS (for 3-phase buses)

Bus   Mag:   V1 (kV)    p.u.     V2 (kV)   %V2/V1    V0 (kV)    %V0/V1

a       0.2194          1  1.096E-010  4.994E-008 1.422E-011 6.48E-009
a1      0.2194          1  1.899E-006  0.0008655 9.494E-007 0.0004328
a1-1    0.2194     0.9999  3.418E-006   0.001558 1.709E-006 0.0007791
a1-2    0.2194     0.9999  3.418E-006   0.001558 1.709E-006 0.0007791
a1-3    0.2194     0.9999  3.418E-006   0.001558 1.709E-006 0.0007791
a1-4    0.2194     0.9999  3.418E-006   0.001558 1.709E-006 0.0007791
a1-5    0.2194     0.9999  3.418E-006   0.001558 1.709E-006 0.0007791
